   318
 Generated by Multiwfn
C      10.26717700      8.87168100     22.05894700
C       9.16178800      9.04694700     22.88530900
C       9.03193500      8.28567700     24.03995100
H       8.27611300      8.40501800     24.60399000
C      10.00423400      7.34780200     24.36823100
H       9.91330900      6.82771600     25.15836900
C      11.10638700      7.17253600     23.54187000
H      11.77197200      6.53242600     23.76778000
C      11.23947600      7.93380600     22.38722800
C      12.68839700      7.69030700     21.70425300
H      12.71068700      8.41916000     21.01950500
C      14.01025800      7.93380600     22.45514800
H      13.94851700      8.78233600     22.95141800
H      14.17119700      7.20306700     23.08329600
H      14.74727500      7.98914200     21.81394400
C      12.43121100      6.44872600     20.82129200
H      11.53009100      6.50243000     20.44195800
H      13.09041200      6.42695800     20.09458400
H      12.51433400      5.64088300     21.36393600
C       8.05047000     10.06108300     22.54193500
H       8.35339700     10.55788900     21.73017600
C       6.69994000      9.35199100     22.16837400
H       6.86364700      8.67276100     21.48615400
H       6.31780400      8.93679700     22.96715200
H       6.07197200     10.02332700     21.81820800
C       7.73272600     11.01099900     23.50791000
H       8.19638100     11.01348800     24.33744100
H       7.05498000     11.64941000     23.33727900
C      11.45161000     10.63370900     20.93449200
C       9.78252900      9.29044700     19.66287600
C      13.53957600     12.64592500     13.56138500
C      14.74376900     12.01844600     13.26706400
C      15.41658700     12.32081300     12.08600900
H      16.23851600     11.89241400     11.88643700
C      14.87790500     13.24932300     11.20304700
H      15.33703700     13.45479900     10.39585400
C      13.67371200     13.87546500     11.49736800
H      13.30798700     14.50954000     10.89186000
C      13.00412900     13.57309700     12.67842300
C      15.42950400     10.93072500     14.17266600
H      14.87784400     10.89480200     15.00593300
C      15.27083900      9.55267700     13.53119800
H      14.33162500      9.40233600     13.29593000
H      15.82373800      9.49669900     12.72517500
H      15.55801900      8.85877000     14.16859100
C      16.74806800     11.34547700     14.60282700
H      16.69100000     12.25022500     14.98887700
H      17.08763800     10.72657300     15.27565100
H      17.35336600     11.36450200     13.83219800
C      11.68847500     14.27550000     12.95010400
H      11.44848400     14.10213300     13.90381600
C      11.80149500     15.88099200     12.76143700
H      10.93273700     16.29787100     12.94689600
H      12.47144800     16.24142500     13.38305700
H      12.07073100     16.08942500     11.84115700
C      10.51154400     13.76709400     12.07091500
H       9.69757000     14.26848900     12.29852300
H      10.72526000     13.91422400     11.12407100
H      10.36775900     12.81675000     12.23256500
C      11.88781000     11.18894100     19.66778100
C      12.99764600     12.02781100     19.69683600
C      13.53217100     12.51481000     18.51200700
C      12.96034700     12.16427800     17.29699200
C      11.85126400     11.32540800     17.26454100
C      11.31640500     10.83840900     18.45087900
C      10.20988800      9.99953900     18.42144700
C       9.63566500      9.64900700     17.20265800
C      10.17019000     10.13600600     16.01782900
C      11.27985800     10.97487600     16.04763900
C      13.44616900     12.75563400     16.02537600
C      11.81725500     11.41906200     14.79149400
N      10.51948000      9.63295200     20.86279800
N      12.86692600     12.30609600     14.82922700
O       9.14746300      8.40742600     19.78362300
O      11.79331600     10.86784300     22.09290700
O      11.55749800     11.12338400     13.59911800
O      14.22058900     13.54232500     15.87444200
C      15.03551700     13.32558400     20.21001000
C      14.76019300     13.19848200     18.82519500
C      16.87677800     14.57652900     19.30440900
C      16.18075400     14.06812400     20.56093100
C      16.70817400     14.34239500     21.87405300
C      17.89106000     15.25217400     21.83632000
C      18.53040600     15.60003100     20.58734400
C      17.97537400     15.29231100     19.39874200
C      16.08679000     13.86609900     23.10038900
H      16.60827400     14.17119600     23.87283000
H      15.17356800     14.21580200     23.16521500
H      16.06119100     12.88622700     23.09137100
C      18.65355800     15.81409600     22.86266900
C      19.61357700     16.73725400     22.66268200
O      18.62520900     15.67896700     18.26296700
S      13.91900100     12.43721100     21.13032800
S      18.24807500     15.78064800     24.64745900
S      19.89203600     16.64493800     20.88166500
S      16.01439000     14.15107400     17.92600800
C      21.40895700     18.05777100     23.91920400
C      20.32520000     17.19749500     23.78713700
C      19.58248100     16.84428700     24.90404600
C      19.91944600     17.35135500     26.15679500
C      21.00404000     18.21163100     26.28508800
C      21.74999500     18.56483900     25.16818000
C      22.83458900     19.42511500     25.29647300
C      23.17239100     19.93218300     26.54544900
H      23.91226500     20.52030200     26.63536700
C      22.42560000     19.57897500     27.66613100
H      22.65680200     19.92639000     28.51860400
C      21.34184200     18.72003700     27.53406400
C      20.52052100     18.48991600     28.66983900
C      19.26029500     16.95132000     27.34917000
C      22.13828900     18.50329500     22.86266900
C      23.70009200     19.84120500     24.09277800
N      19.46733500     17.59351700     28.56041200
N      23.37562400     19.33280000     22.90040200
O      20.70619300     19.11873400     29.81693500
O      18.11116100     16.09639500     27.52651700
O      21.97805600     18.35211100     21.77594700
O      24.73353100     20.48340200     24.24748500
C       8.46036000      8.82084100     16.87060400
C       8.27490700      8.58938200     15.47446800
C       7.21569300      7.83346300     15.08581400
C       6.49573400      7.35984300     16.18763000
C       5.46765300      6.56913800     16.18385600
C       5.02926700      6.12762800     14.86318700
C       5.70967400      6.54238000     13.75005200
C       6.79449000      7.38526300     13.84815900
C       5.04524500      5.98045800     12.58786300
C       3.99139400      5.17771200     12.78785000
C       7.60493100      7.81071900     12.54258300
H       7.17959900      7.41907200     11.75180400
H       7.61111700      8.78740600     12.46070200
H       8.52744300      7.48414800     12.61212600
O       4.80504100      5.90553500     17.18756500
S       9.41298500      9.54866400     14.55905600
S       7.28286900      7.87360000     17.74488700
S       3.63360800      5.14292600     14.57641300
S       5.49717200      5.97778200     10.90004800
C       2.26463000      3.81705700     11.44076800
C       3.42079800      4.56494900     11.62566100
C       4.21913700      4.89675100     10.53516600
C       3.85807100      4.48066100      9.25977700
C       2.69866700      3.73276900      9.07488300
C       1.90440100      3.40096700     10.16160500
C       0.74823300      2.65307600      9.97671200
C       0.38716800      2.23698600      8.70132300
H      -0.40363700      1.72603800      8.57231200
C       1.18227000      2.56878700      7.61082700
H       0.93729900      2.28441400      6.73771400
C       2.34167400      3.31667900      7.79572100
C       1.51276100      3.39829100     12.48221000
C      -0.10449600      2.18079300     11.09362000
C       3.19194800      3.67925300      6.57315900
C       4.54846400      4.82985500      8.21833500
N       0.24686200      2.56878700     12.36900900
N       4.31604000      4.37496600      6.82974600
O       1.55662400      3.46518700     13.55383800
O      -0.99807900      1.41818500     10.95023300
O       2.84499800      3.27921700      5.46757000
O       5.76470900      5.56035400      8.04476100
C      13.72135700      4.50741900     15.67445500
C      14.82674500      4.33215300     14.84809400
C      14.95659900      5.09342300     13.69345200
H      15.71242000      4.97408200     13.12941300
C      13.98429900      6.03129800     13.36517100
H      14.07522500      6.55138400     12.57503400
C      12.88214600      6.20656400     14.19153300
H      12.21656100      6.84667400     13.96562300
C      12.74905700      5.44529400     15.34617500
C      11.30013600      5.68879300     16.02914900
H      11.27784700      4.95994000     16.71389700
C       9.97827500      5.44529400     15.27825500
H      10.04001600      4.59676400     14.78198500
H       9.81733700      6.17603300     14.65010700
H       9.24125800      5.38995800     15.91945800
C      11.55732200      6.93037400     16.91211100
H      12.45844300      6.87667000     17.29144500
H      10.89812100      6.95214200     17.63881900
H      11.47420000      7.73821700     16.36946700
C      15.93806400      3.31801700     15.19146800
H      15.63513600      2.82121100     16.00322700
C      17.28859300      4.02710900     15.56502900
H      17.12488600      4.70633900     16.24724800
H      17.67072900      4.44230300     14.76625000
H      17.91656100      3.35577300     15.91519500
C      16.25580700      2.36810100     14.22549300
H      15.79215200      2.36561200     13.39596200
H      16.93355300      1.72969000     14.39612300
C      12.53692400      2.74539100     16.79891100
C      14.20600400      4.08865300     18.07052700
C      10.44895800      0.73317500     24.17201800
C       9.24476400      1.36065400     24.46633800
C       8.57194600      1.05828700     25.64739400
H       7.75001700      1.48668600     25.84696600
C       9.11062800      0.12977700     26.53035500
H       8.65149600     -0.07569900     27.33754800
C      10.31482200     -0.49636500     26.23603500
H      10.68054600     -1.13044000     26.84154300
C      10.98440500     -0.19399700     25.05497900
C       8.55903000      2.44837500     23.56073700
H       9.11069000      2.48429800     22.72747000
C       8.71769400      3.82642300     24.20220400
H       9.65690800      3.97676400     24.43747200
H       8.16479500      3.88240100     25.00822800
H       8.43051400      4.52033000     23.56481200
C       7.24046500      2.03362300     23.13057600
H       7.29753300      1.12887500     22.74452500
H       6.90089500      2.65252700     22.45775100
H       6.63516800      2.01459800     23.90120500
C      12.30005800     -0.89640000     24.78329900
H      12.54004900     -0.72303300     23.82958700
C      12.18703900     -2.50189200     24.97196600
H      13.05579600     -2.91877100     24.78650600
H      11.51708500     -2.86232500     24.35034600
H      11.91780200     -2.71032500     25.89224600
C      13.47698900     -0.38799400     25.66248700
H      14.29096300     -0.88938900     25.43487900
H      13.26327300     -0.53512400     26.60933100
H      13.62077400      0.56235000     25.50083700
C      12.10072300      2.19015900     18.06562100
C      10.99088700      1.35128900     18.03656600
C      10.45636200      0.86429000     19.22139500
C      11.02818600      1.21482200     20.43641100
C      12.13726900      2.05369200     20.46886200
C      12.67212900      2.54069100     19.28252300
C      13.77864500      3.37956100     19.31195500
C      14.35286800      3.73009300     20.53074400
C      13.81834300      3.24309400     21.71557300
C      12.70867500      2.40422400     21.68576400
C      10.54236400      0.62346600     21.70802700
C      12.17127800      1.96003800     22.94190900
N      13.46905400      3.74614800     16.87060400
N      11.12160700      1.07300400     22.90417500
O      14.84107100      4.97167400     17.94978000
O      12.19521800      2.51125700     15.64049500
O      12.43103500      2.25571600     24.13428400
O       9.76794400     -0.16322500     21.85896000
C       8.95301600      0.05351600     17.52339200
C       9.22834000      0.18061800     18.90820800
C       7.11175500     -1.19742900     18.42899400
C       7.80777900     -0.68902400     17.17247200
C       7.28036000     -0.96329500     15.85934900
C       6.09747300     -1.87307400     15.89708300
C       5.45812700     -2.22093100     17.14605800
C       6.01315900     -1.91321100     18.33466000
C       7.90174300     -0.48699900     14.63301400
H       7.38025900     -0.79209600     13.86057300
H       8.81496500     -0.83670200     14.56818800
H       7.92734200      0.49287300     14.64203200
C       5.33497500     -2.43499600     14.87073400
C       4.37495600     -3.35815400     15.07072100
O       5.36332400     -2.29986700     19.47043600
S      10.06953200      0.94188900     16.60307400
S       5.74045800     -2.40154800     13.08594400
S       4.09649700     -3.26583800     16.85173800
S       7.97414300     -0.77197400     19.80739500
C       2.57957600     -4.67867100     13.81419900
C       3.66333300     -3.81839500     13.94626600
C       4.40605200     -3.46518700     12.82935700
C       4.06908700     -3.97225500     11.57660800
C       2.98449300     -4.83253100     11.44831400
C       2.23853800     -5.18573900     12.56522300
C       1.15394400     -6.04601500     12.43693000
C       0.81614200     -6.55308300     11.18795400
H       0.07626800     -7.14120200     11.09803500
C       1.56293400     -6.19987500     10.06727200
H       1.33173100     -6.54729000      9.21479900
C       2.64669100     -5.34093700     10.19933900
C       3.46801200     -5.11081600      9.06356300
C       4.72823800     -3.57222000     10.38423200
C       1.85024400     -5.12419500     14.87073400
C       0.28844100     -6.46210500     13.64062500
N       4.52119800     -4.21441600      9.17299000
N       0.61291000     -5.95369900     14.83300100
O       3.28234000     -5.73963400      7.91646800
O       5.87737200     -2.71729500     10.20688500
O       2.01047700     -4.97301100     15.95745600
O      -0.74499700     -7.10430200     13.48591800
C      15.52817300      4.55825900     20.86279800
C      15.71362600      4.78971800     22.25893400
C      16.77284100      5.54563700     22.64758800
C      17.49280000      6.01925700     21.54577300
C      18.52088000      6.80996200     21.54954600
C      18.95926600      7.25147200     22.87021500
C      18.27886000      6.83672000     23.98335100
C      17.19404300      5.99383700     23.88524400
C      18.94328800      7.39864200     25.14554000
C      19.99713900      8.20138800     24.94555200
C      16.38360200      5.56838100     25.19082000
H      16.80893400      5.96002800     25.98159900
H      16.37741700      4.59169400     25.27270100
H      15.46109000      5.89495200     25.12127700
O      19.18349300      7.47356500     20.54583800
S      14.57554800      3.83043600     23.17434700
S      16.70566400      5.50550000     19.98851500
S      20.35492500      8.23617400     23.15698900
S      18.49136100      7.40131800     26.83335500
C      21.72390300      9.56204300     26.29263500
C      20.56773500      8.81415100     26.10774100
C      19.76939700      8.48234900     27.19823700
C      20.13046200      8.89843900     28.47362600
C      21.28986600      9.64633100     28.65851900
C      22.08413200      9.97813300     27.57179700
C      23.24030000     10.72602400     27.75669100
C      23.60136600     11.14211400     29.03208000
H      24.39217100     11.65306200     29.16109000
C      22.80626300     10.81031300     30.12257500
H      23.05123400     11.09468600     30.99568900
C      21.64685900     10.06242100     29.93768200
C      22.47577300      9.98080900     25.25119300
C      24.09303000     11.19830700     26.63978200
C      20.79658600      9.69984800     31.16024400
C      19.44006900      8.54924500     29.51506800
N      23.74167100     10.81031300     25.36439300
N      19.67249300      9.00413400     30.90365700
O      22.43190900      9.91391300     24.17956400
O      24.98661200     11.96091500     26.78316900
O      21.14353500     10.09988300     32.26583300
O      18.22382400      7.81874600     29.68864100
