   714
 Generated by Multiwfn
C      10.26717700      8.87168100     22.05894700
C       9.16178800      9.04694700     22.88530900
C       9.03193500      8.28567700     24.03995100
H       8.27611300      8.40501800     24.60399000
C      10.00423400      7.34780200     24.36823100
H       9.91330900      6.82771600     25.15836900
C      11.10638700      7.17253600     23.54187000
H      11.77197200      6.53242600     23.76778000
C      11.23947600      7.93380600     22.38722800
C      12.68839700      7.69030700     21.70425300
H      12.71068700      8.41916000     21.01950500
C      14.01025800      7.93380600     22.45514800
H      13.94851700      8.78233600     22.95141800
H      14.17119700      7.20306700     23.08329600
H      14.74727500      7.98914200     21.81394400
C      12.43121100      6.44872600     20.82129200
H      11.53009100      6.50243000     20.44195800
H      13.09041200      6.42695800     20.09458400
H      12.51433400      5.64088300     21.36393600
C       8.05047000     10.06108300     22.54193500
H       8.35339700     10.55788900     21.73017600
C       6.69994000      9.35199100     22.16837400
H       6.86364700      8.67276100     21.48615400
H       6.31780400      8.93679700     22.96715200
H       6.07197200     10.02332700     21.81820800
C       7.73272600     11.01099900     23.50791000
H       8.19638100     11.01348800     24.33744100
H       7.05498000     11.64941000     23.33727900
C      11.45161000     10.63370900     20.93449200
C       9.78252900      9.29044700     19.66287600
C      13.53957600     12.64592500     13.56138500
C      14.74376900     12.01844600     13.26706400
C      15.41658700     12.32081300     12.08600900
H      16.23851600     11.89241400     11.88643700
C      14.87790500     13.24932300     11.20304700
H      15.33703700     13.45479900     10.39585400
C      13.67371200     13.87546500     11.49736800
H      13.30798700     14.50954000     10.89186000
C      13.00412900     13.57309700     12.67842300
C      15.42950400     10.93072500     14.17266600
H      14.87784400     10.89480200     15.00593300
C      15.27083900      9.55267700     13.53119800
H      14.33162500      9.40233600     13.29593000
H      15.82373800      9.49669900     12.72517500
H      15.55801900      8.85877000     14.16859100
C      16.74806800     11.34547700     14.60282700
H      16.69100000     12.25022500     14.98887700
H      17.08763800     10.72657300     15.27565100
H      17.35336600     11.36450200     13.83219800
C      11.68847500     14.27550000     12.95010400
H      11.44848400     14.10213300     13.90381600
C      11.80149500     15.88099200     12.76143700
H      10.93273700     16.29787100     12.94689600
H      12.47144800     16.24142500     13.38305700
H      12.07073100     16.08942500     11.84115700
C      10.51154400     13.76709400     12.07091500
H       9.69757000     14.26848900     12.29852300
H      10.72526000     13.91422400     11.12407100
H      10.36775900     12.81675000     12.23256500
C      11.88781000     11.18894100     19.66778100
C      12.99764600     12.02781100     19.69683600
C      13.53217100     12.51481000     18.51200700
C      12.96034700     12.16427800     17.29699200
C      11.85126400     11.32540800     17.26454100
C      11.31640500     10.83840900     18.45087900
C      10.20988800      9.99953900     18.42144700
C       9.63566500      9.64900700     17.20265800
C      10.17019000     10.13600600     16.01782900
C      11.27985800     10.97487600     16.04763900
C      13.44616900     12.75563400     16.02537600
C      11.81725500     11.41906200     14.79149400
N      10.51948000      9.63295200     20.86279800
N      12.86692600     12.30609600     14.82922700
O       9.14746300      8.40742600     19.78362300
O      11.79331600     10.86784300     22.09290700
O      11.55749800     11.12338400     13.59911800
O      14.22058900     13.54232500     15.87444200
C      15.03551700     13.32558400     20.21001000
C      14.76019300     13.19848200     18.82519500
C      16.87677800     14.57652900     19.30440900
C      16.18075400     14.06812400     20.56093100
C      16.70817400     14.34239500     21.87405300
C      17.89106000     15.25217400     21.83632000
C      18.53040600     15.60003100     20.58734400
C      17.97537400     15.29231100     19.39874200
C      16.08679000     13.86609900     23.10038900
H      16.60827400     14.17119600     23.87283000
H      15.17356800     14.21580200     23.16521500
H      16.06119100     12.88622700     23.09137100
C      18.65355800     15.81409600     22.86266900
C      19.61357700     16.73725400     22.66268200
O      18.62520900     15.67896700     18.26296700
S      13.91900100     12.43721100     21.13032800
S      18.24807500     15.78064800     24.64745900
S      19.89203600     16.64493800     20.88166500
S      16.01439000     14.15107400     17.92600800
C      19.29323900     14.46280700     17.73092600
H      18.62776300     13.89221500     17.27208800
H      19.67806600     13.94111600     18.48170700
C      20.41028500     14.85080100     16.74985700
H      21.04020500     15.46614600     17.19073400
H      20.01560500     15.30997200     15.96851200
C      21.17014000     13.59316600     16.27064300
H      21.55574800     13.12350600     17.05146100
H      21.91178300     13.86536300     15.67570100
C      20.21797300     12.64325000     15.51597500
H      20.53298300     12.53738100     14.58173400
H      19.31001600     13.03838800     15.48876900
C      20.16838900     11.26520200     16.20649600
H      20.20402600     11.38875800     17.18813100
H      19.31731000     10.81525000     15.98145400
C      21.35439300     10.40894000     15.74614900
H      21.31562200      9.53024100     16.18917700
H      21.31132600     10.27734300     14.77394800
H      22.19627200     10.84972800     15.97824700
C      21.40895700     18.05777100     23.91920400
C      20.32520000     17.19749500     23.78713700
C      19.58248100     16.84428700     24.90404600
C      19.91944600     17.35135500     26.15679500
C      21.00404000     18.21163100     26.28508800
C      21.74999500     18.56483900     25.16818000
C      22.83458900     19.42511500     25.29647300
C      23.17239100     19.93218300     26.54544900
H      23.91226500     20.52030200     26.63536700
C      22.42560000     19.57897500     27.66613100
H      22.65680200     19.92639000     28.51860400
C      21.34184200     18.72003700     27.53406400
C      20.52052100     18.48991600     28.66983900
C      19.26029500     16.95132000     27.34917000
C      22.13828900     18.50329500     22.86266900
C      23.70009200     19.84120500     24.09277800
N      19.46733500     17.59351700     28.56041200
N      23.37562400     19.33280000     22.90040200
O      20.70619300     19.11873400     29.81693500
O      18.11116100     16.09639500     27.52651700
O      21.97805600     18.35211100     21.77594700
O      24.73353100     20.48340200     24.24748500
C      18.59742200     17.36607200     29.59430800
H      18.95923500     18.01240300     30.26298100
C      18.50360200     16.10843600     30.46972300
H      18.38042000     16.37266000     31.41641600
H      17.71676100     15.57146600     30.19823100
C      19.76073900     15.25217400     30.34520200
H      19.55722600     14.34234200     30.67231300
H      19.99951500     15.18343200     29.38835900
C      20.94910400     15.77395900     31.09987000
H      20.67276600     16.00968500     32.02007500
H      21.27122200     16.60474700     30.66031400
C      22.10700000     14.75714700     31.16024400
H      21.75492900     13.85900800     31.40453000
H      22.76706900     15.02618800     31.84204900
C      22.78388700     14.69025200     29.75656100
H      22.51950300     13.86189800     29.28236600
H      22.51139500     15.46834000     29.20818200
C      24.31733700     14.70363100     30.00560200
H      24.78761700     14.67197600     29.14565800
H      24.56210500     15.53328200     30.47545800
H      24.57015900     13.93466700     30.54930200
C      17.19880700     17.96813100     29.37922700
H      17.28293700     18.88038500     29.00800600
H      16.69366800     17.41495900     28.73225000
C      16.44649600     18.02164800     30.69989600
H      16.44724400     17.11351500     31.09398400
H      16.94533300     18.61312400     31.31634700
C      15.02902700     18.50329500     30.62820300
H      14.74561100     18.81262000     31.52327700
H      14.44278200     17.74781800     30.36799300
C      14.84319000     19.65389800     29.61317400
H      14.68187300     19.28769900     28.70730900
H      15.66046000     20.21315800     29.58023300
C      13.62661400     20.52353900     30.05088200
H      13.20486400     20.95432000     29.26685700
H      12.95048300     19.96702200     30.51104100
C      14.19051300     21.60724700     31.02440400
H      13.46188000     22.17984500     31.33174200
H      14.60818100     21.16324800     31.79386300
H      14.86124400     22.14550100     30.55605700
C      23.90015900     19.78768900     21.42502600
H      23.48321800     19.29250200     20.66556600
C      23.72850400     21.31290600     21.33823900
H      22.76333500     21.53196200     21.30975000
H      24.10925800     21.73061500     22.15305400
C      24.41052600     21.90158700     20.11567700
H      25.29254700     22.25187800     20.39101800
H      24.57129600     21.16653900     19.47077500
C      23.66917600     22.99867300     19.40251600
H      22.82897500     22.62515500     19.03503000
H      24.21976800     23.31020500     18.64381000
C      23.32192000     24.20279200     20.31189100
H      24.12257100     24.44506100     20.85408200
H      22.59491400     23.96017500     20.92822800
C      22.90379100     25.40691100     19.42515600
H      23.67389000     25.72950800     18.89070000
H      22.18106900     25.13973000     18.80527100
C      22.40005700     26.53075500     20.38358400
H      22.12946100     27.30801400     19.86007100
H      21.64669100     26.19758900     20.90649400
H      23.13299500     26.78477100     20.99154500
C      25.35489500     19.39969500     21.70802700
H      25.90954500     19.58682800     20.90811600
H      25.70447100     19.94513400     22.45756300
C      25.43885800     17.92799400     22.05894700
H      26.29851500     17.76502300     22.52254000
H      24.71348200     17.71746000     22.70105600
C      25.33814800     16.96469900     20.90807800
H      25.05234100     17.46489000     20.09990400
H      24.64263800     16.29297400     21.10923500
C      26.67500000     16.24222700     20.61375800
H      27.42865300     16.78100400     20.96750800
H      26.79434900     16.15066100     19.63518000
C      26.65548500     14.85080100     21.28541200
H      27.37714400     14.27797500     20.91249300
H      25.78804700     14.39901600     21.12538500
C      26.87803700     15.07824600     22.80606900
H      26.87452300     14.21142700     23.27030300
H      27.74057300     15.51813700     22.94851200
H      26.15891700     15.63860300     23.16038500
C       8.46036000      8.82084100     16.87060400
C       8.27490700      8.58938200     15.47446800
C       7.21569300      7.83346300     15.08581400
C       6.49573400      7.35984300     16.18763000
C       5.46765300      6.56913800     16.18385600
C       5.02926700      6.12762800     14.86318700
C       5.70967400      6.54238000     13.75005200
C       6.79449000      7.38526300     13.84815900
C       5.04524500      5.98045800     12.58786300
C       3.99139400      5.17771200     12.78785000
C       7.60493100      7.81071900     12.54258300
H       7.17959900      7.41907200     11.75180400
H       7.61111700      8.78740600     12.46070200
H       8.52744300      7.48414800     12.61212600
O       4.80504100      5.90553500     17.18756500
S       9.41298500      9.54866400     14.55905600
S       7.28286900      7.87360000     17.74488700
S       3.63360800      5.14292600     14.57641300
S       5.49717200      5.97778200     10.90004800
C       4.29188000      6.74841800     18.21768700
H       3.77954700      7.48072300     17.79356300
H       5.05707400      7.15929000     18.69331600
C       3.38302800      6.07411100     19.26667500
H       3.67710500      5.13576800     19.41217500
H       2.44834000      6.05386900     18.94096100
C       3.46382600      6.86347800     20.59489100
H       2.90252100      6.41366000     21.27831900
H       4.39763200      6.86871000     20.91845500
C       2.96877700      8.30842100     20.37603700
H       3.08332600      8.82276700     21.21032300
H       3.51170000      8.73611100     19.66797000
C       1.48508600      8.30842100     19.96097000
H       1.38360200      7.84953100     19.09038500
H       0.95459600      7.80980900     20.63398300
C       0.95283000      9.75336400     19.85154300
H       0.01025800      9.72830500     19.58895600
H       1.04280400     10.19581100     20.71873200
H       1.47120400     10.23548000     19.17728500
C       2.26463000      3.81705700     11.44076800
C       3.42079800      4.56494900     11.62566100
C       4.21913700      4.89675100     10.53516600
C       3.85807100      4.48066100      9.25977700
C       2.69866700      3.73276900      9.07488300
C       1.90440100      3.40096700     10.16160500
C       0.74823300      2.65307600      9.97671200
C       0.38716800      2.23698600      8.70132300
H      -0.40363700      1.72603800      8.57231200
C       1.18227000      2.56878700      7.61082700
H       0.93729900      2.28441400      6.73771400
C       2.34167400      3.31667900      7.79572100
C       1.51276100      3.39829100     12.48221000
C      -0.10449600      2.18079300     11.09362000
C       3.19194800      3.67925300      6.57315900
C       4.54846400      4.82985500      8.21833500
N       0.24686200      2.56878700     12.36900900
N       4.31604000      4.37496600      6.82974600
O       1.55662400      3.46518700     13.55383800
O      -0.99807900      1.41818500     10.95023300
O       2.84499800      3.27921700      5.46757000
O       5.76470900      5.56035400      8.04476100
C      -0.47794800      2.17410400     13.58025200
H      -0.01323800      2.55610400     14.37861500
C      -0.44782300      0.64219700     13.66326500
H      -0.90075700      0.34878000     14.49109800
H      -0.94052800      0.26178900     12.89222100
C       0.98398200      0.11372200     13.65571800
H       1.41378600      0.38133100     12.80422600
H       1.48293700      0.54810200     14.39099100
C       1.11229200     -1.38072300     13.80665200
H       0.94165200     -1.62330000     14.75096800
H       2.03933100     -1.64751600     13.58817600
C       0.13775200     -2.17009000     12.90482400
H      -0.77281300     -1.79380300     12.99006300
H       0.11058500     -3.11605900     13.19484300
C       0.59841200     -2.08714000     11.42567400
H       0.55479400     -1.15562000     11.10701600
H       1.53438000     -2.40508100     11.34552900
C      -0.33523500     -2.98353900     10.57289900
H      -0.05572600     -2.94696100      9.63401700
H      -0.28063600     -3.91151400     10.89106700
H      -1.25708900     -2.66608000     10.65330900
C      -1.91254300      2.70257800     13.52742500
H      -1.90654900      3.63740300     13.18537200
H      -2.44734200      2.15556000     12.90418200
C      -2.55205400      2.67582000     14.90846700
H      -2.74751000      1.73826600     15.14116900
H      -1.89372900      3.01891400     15.56355700
C      -3.81744700      3.47856600     15.05562800
H      -4.52337400      3.06472400     14.49351300
H      -3.66221500      4.39365600     14.71848000
C      -4.31922100      3.55884100     16.51591000
H      -3.56458800      3.77425700     17.11606000
H      -4.68670700      2.67553900     16.78944000
C      -5.41937600      4.64254800     16.63288400
H      -6.11274900      4.36324600     17.28110600
H      -5.85353800      4.78805900     15.75279000
C      -4.72645100      5.95370000     17.11209800
H      -5.39245200      6.66169500     17.19696100
H      -4.30188700      5.79232100     17.98177800
H      -4.04381600      6.21528800     16.46006500
C       5.25345100      4.60241000      5.63737000
H       4.85087700      4.06189500      4.89541800
C       6.66690500      4.01908200      5.81471700
H       7.17059700      4.11994700      4.96824400
H       7.14487700      4.52978900      6.51606800
C       6.62925500      2.55540800      6.20337100
H       6.17641100      2.47520000      7.08025800
H       6.07182600      2.07095100      5.54020700
C       7.95841400      1.85969500      6.29393200
H       8.57951300      2.41670700      6.82521800
H       8.33669300      1.76078300      5.38531100
C       7.84194200      0.46826900      6.95049300
H       7.54887500     -0.20090100      6.27559300
H       7.16387200      0.48721300      7.67240800
C       9.21679700      0.04013700      7.53536100
H       9.59447800      0.77700500      8.08374000
H       9.85254000     -0.16303800      6.80544600
C       8.97330400     -1.21749800      8.41454900
H       9.82231900     -1.51187800      8.80210900
H       8.34328300     -0.99670300      9.13091700
H       8.60019400     -1.93250400      7.85839600
C       5.34086000      6.02059500      5.08268900
H       5.73236600      6.62114300      5.77023000
H       5.93293100      6.03572700      4.29247600
C       3.96779300      6.54238000      4.69403500
H       3.51417900      5.84696100      4.15569300
H       3.43756800      6.67373600      5.51862300
C       3.95333300      7.82677300      3.91295400
H       4.36986300      7.67485400      3.02867200
H       4.49386300      8.50427800      4.39201700
C       2.51901600      8.37531700      3.71296700
H       2.15108100      8.67606500      4.58019400
H       1.93330100      7.65372800      3.36325400
C       2.55068800      9.55267700      2.70925800
H       3.48499000      9.83318400      2.53142100
H       2.05916600     10.33469900      3.07915900
C       1.87359400      9.05765100      1.39990900
H       1.87417100      9.78730700      0.73953700
H       2.37003400      8.29699500      1.04634700
H       0.95068400      8.79622300      1.59159500
C      13.72135700      4.50741900     15.67445500
C      14.82674500      4.33215300     14.84809400
C      14.95659900      5.09342300     13.69345200
H      15.71242000      4.97408200     13.12941300
C      13.98429900      6.03129800     13.36517100
H      14.07522500      6.55138400     12.57503400
C      12.88214600      6.20656400     14.19153300
H      12.21656100      6.84667400     13.96562300
C      12.74905700      5.44529400     15.34617500
C      11.30013600      5.68879300     16.02914900
H      11.27784700      4.95994000     16.71389700
C       9.97827500      5.44529400     15.27825500
H      10.04001600      4.59676400     14.78198500
H       9.81733700      6.17603300     14.65010700
H       9.24125800      5.38995800     15.91945800
C      11.55732200      6.93037400     16.91211100
H      12.45844300      6.87667000     17.29144500
H      10.89812100      6.95214200     17.63881900
H      11.47420000      7.73821700     16.36946700
C      15.93806400      3.31801700     15.19146800
H      15.63513600      2.82121100     16.00322700
C      17.28859300      4.02710900     15.56502900
H      17.12488600      4.70633900     16.24724800
H      17.67072900      4.44230300     14.76625000
H      17.91656100      3.35577300     15.91519500
C      16.25580700      2.36810100     14.22549300
H      15.79215200      2.36561200     13.39596200
H      16.93355300      1.72969000     14.39612300
C      12.53692400      2.74539100     16.79891100
C      14.20600400      4.08865300     18.07052700
C      10.44895800      0.73317500     24.17201800
C       9.24476400      1.36065400     24.46633800
C       8.57194600      1.05828700     25.64739400
H       7.75001700      1.48668600     25.84696600
C       9.11062800      0.12977700     26.53035500
H       8.65149600     -0.07569900     27.33754800
C      10.31482200     -0.49636500     26.23603500
H      10.68054600     -1.13044000     26.84154300
C      10.98440500     -0.19399700     25.05497900
C       8.55903000      2.44837500     23.56073700
H       9.11069000      2.48429800     22.72747000
C       8.71769400      3.82642300     24.20220400
H       9.65690800      3.97676400     24.43747200
H       8.16479500      3.88240100     25.00822800
H       8.43051400      4.52033000     23.56481200
C       7.24046500      2.03362300     23.13057600
H       7.29753300      1.12887500     22.74452500
H       6.90089500      2.65252700     22.45775100
H       6.63516800      2.01459800     23.90120500
C      12.30005800     -0.89640000     24.78329900
H      12.54004900     -0.72303300     23.82958700
C      12.18703900     -2.50189200     24.97196600
H      13.05579600     -2.91877100     24.78650600
H      11.51708500     -2.86232500     24.35034600
H      11.91780200     -2.71032500     25.89224600
C      13.47698900     -0.38799400     25.66248700
H      14.29096300     -0.88938900     25.43487900
H      13.26327300     -0.53512400     26.60933100
H      13.62077400      0.56235000     25.50083700
C      12.10072300      2.19015900     18.06562100
C      10.99088700      1.35128900     18.03656600
C      10.45636200      0.86429000     19.22139500
C      11.02818600      1.21482200     20.43641100
C      12.13726900      2.05369200     20.46886200
C      12.67212900      2.54069100     19.28252300
C      13.77864500      3.37956100     19.31195500
C      14.35286800      3.73009300     20.53074400
C      13.81834300      3.24309400     21.71557300
C      12.70867500      2.40422400     21.68576400
C      10.54236400      0.62346600     21.70802700
C      12.17127800      1.96003800     22.94190900
N      13.46905400      3.74614800     16.87060400
N      11.12160700      1.07300400     22.90417500
O      14.84107100      4.97167400     17.94978000
O      12.19521800      2.51125700     15.64049500
O      12.43103500      2.25571600     24.13428400
O       9.76794400     -0.16322500     21.85896000
C       8.95301600      0.05351600     17.52339200
C       9.22834000      0.18061800     18.90820800
C       7.11175500     -1.19742900     18.42899400
C       7.80777900     -0.68902400     17.17247200
C       7.28036000     -0.96329500     15.85934900
C       6.09747300     -1.87307400     15.89708300
C       5.45812700     -2.22093100     17.14605800
C       6.01315900     -1.91321100     18.33466000
C       7.90174300     -0.48699900     14.63301400
H       7.38025900     -0.79209600     13.86057300
H       8.81496500     -0.83670200     14.56818800
H       7.92734200      0.49287300     14.64203200
C       5.33497500     -2.43499600     14.87073400
C       4.37495600     -3.35815400     15.07072100
O       5.36332400     -2.29986700     19.47043600
S      10.06953200      0.94188900     16.60307400
S       5.74045800     -2.40154800     13.08594400
S       4.09649700     -3.26583800     16.85173800
S       7.97414300     -0.77197400     19.80739500
C       4.69529400     -1.08370700     20.00247700
H       5.36077000     -0.51311500     20.46131500
H       4.31046700     -0.56201600     19.25169500
C       3.57824800     -1.47170100     20.98354500
H       2.94832800     -2.08704600     20.54266800
H       3.97292800     -1.93087200     21.76489100
C       2.81839400     -0.21406600     21.46275900
H       2.43278500      0.25559400     20.68194200
H       2.07675100     -0.48626300     22.05770200
C       3.77056000      0.73585100     22.21742700
H       3.45555000      0.84171900     23.15166900
H       4.67851700      0.34071200     22.24463300
C       3.82014400      2.11389800     21.52690600
H       3.78450700      1.99034200     20.54527200
H       4.67122400      2.56385000     21.75194800
C       2.63414000      2.97016000     21.98725400
H       2.67291100      3.84885900     21.54422600
H       2.67720800      3.10175700     22.95945500
H       1.79226100      2.52937200     21.75515600
C       2.57957600     -4.67867100     13.81419900
C       3.66333300     -3.81839500     13.94626600
C       4.40605200     -3.46518700     12.82935700
C       4.06908700     -3.97225500     11.57660800
C       2.98449300     -4.83253100     11.44831400
C       2.23853800     -5.18573900     12.56522300
C       1.15394400     -6.04601500     12.43693000
C       0.81614200     -6.55308300     11.18795400
H       0.07626800     -7.14120200     11.09803500
C       1.56293400     -6.19987500     10.06727200
H       1.33173100     -6.54729000      9.21479900
C       2.64669100     -5.34093700     10.19933900
C       3.46801200     -5.11081600      9.06356300
C       4.72823800     -3.57222000     10.38423200
C       1.85024400     -5.12419500     14.87073400
C       0.28844100     -6.46210500     13.64062500
N       4.52119800     -4.21441600      9.17299000
N       0.61291000     -5.95369900     14.83300100
O       3.28234000     -5.73963400      7.91646800
O       5.87737200     -2.71729500     10.20688500
O       2.01047700     -4.97301100     15.95745600
O      -0.74499700     -7.10430200     13.48591800
C       5.39111100     -3.98697200      8.13909500
H       5.02929800     -4.63330300      7.47042100
C       5.48493100     -2.72933600      7.26368000
H       5.60811300     -2.99356000      6.31698700
H       6.27177300     -2.19236600      7.53517200
C       4.22779400     -1.87307400      7.38820000
H       4.43130800     -0.96324200      7.06108900
H       3.98901800     -1.80433200      8.34504400
C       3.03942900     -2.39485900      6.63353200
H       3.31576700     -2.63058500      5.71332800
H       2.71731100     -3.22564700      7.07308900
C       1.88153400     -1.37804700      6.57315900
H       2.23360500     -0.47990800      6.32887300
H       1.22146400     -1.64708800      5.89135400
C       1.20464600     -1.31115200      7.97684100
H       1.46903000     -0.48279800      8.45103700
H       1.47713800     -2.08924000      8.52522100
C      -0.32880400     -1.32453100      7.72780100
H      -0.79908400     -1.29287600      8.58774500
H      -0.57357200     -2.15418200      7.25794500
H      -0.58162600     -0.55556700      7.18410000
C       6.78972600     -4.58903100      8.35417500
H       6.70559600     -5.50128500      8.72539700
H       7.29486500     -4.03585900      9.00115200
C       7.54203700     -4.64254800      7.03350600
H       7.54128900     -3.73441500      6.63941900
H       7.04320100     -5.23402400      6.41705600
C       8.95950600     -5.12419500      7.10520000
H       9.24292200     -5.43352000      6.21012600
H       9.54575200     -4.36871800      7.36540900
C       9.14534400     -6.27479800      8.12022800
H       9.30666000     -5.90859900      9.02609400
H       8.32807400     -6.83405800      8.15317000
C      10.36191900     -7.14443900      7.68252100
H      10.78366900     -7.57522000      8.46654500
H      11.03805000     -6.58792200      7.22236200
C       9.79802000     -8.22814600      6.70899900
H      10.52665300     -8.80074500      6.40166000
H       9.38035200     -7.78414800      5.93953900
H       9.12728900     -8.76640100      7.17734600
C       0.08837500     -6.40858900     16.30837700
H       0.50531500     -5.91340200     17.06783700
C       0.26002900     -7.93380600     16.39516300
H       1.22519800     -8.15286200     16.42365200
H      -0.12072500     -8.35151500     15.58034800
C      -0.42199300     -8.52248700     17.61772600
H      -1.30401400     -8.87277800     17.34238500
H      -0.58276300     -7.78743900     18.26262700
C       0.31935800     -9.61957300     18.33088700
H       1.15955800     -9.24605500     18.69837300
H      -0.23123500     -9.93110500     19.08959300
C       0.66661300    -10.82369200     17.42151200
H      -0.13403800    -11.06596100     16.87932100
H       1.39361900    -10.58107500     16.80517500
C       1.08474200    -12.02781100     18.30824700
H       0.31464300    -12.35040800     18.84270300
H       1.80746400    -11.76063000     18.92813100
C       1.58847600    -13.15165500     17.34981900
H       1.85907200    -13.92891400     17.87333200
H       2.34184200    -12.81848900     16.82690900
H       0.85553800    -13.40567100     16.74185800
C      -1.36636200     -6.02059500     16.02537600
H      -1.92101100     -6.20772800     16.82528600
H      -1.71593800     -6.56603400     15.27584000
C      -1.45032500     -4.54889400     15.67445500
H      -2.30998200     -4.38592300     15.21086300
H      -0.72494900     -4.33836000     15.03234600
C      -1.34961500     -3.58559900     16.82532400
H      -1.06380800     -4.08579000     17.63349800
H      -0.65410500     -2.91387400     16.62416700
C      -2.68646700     -2.86312700     17.11964500
H      -3.44012000     -3.40190400     16.76589400
H      -2.80581600     -2.77156100     18.09822300
C      -2.66695100     -1.47170100     16.44799000
H      -3.38861000     -0.89887500     16.82090900
H      -1.79951400     -1.01991600     16.60801800
C      -2.88950400     -1.69914600     14.92733400
H      -2.88599000     -0.83232700     14.46310000
H      -3.75204000     -2.13903700     14.78489000
H      -2.17038400     -2.25950300     14.57301700
C      15.52817300      4.55825900     20.86279800
C      15.71362600      4.78971800     22.25893400
C      16.77284100      5.54563700     22.64758800
C      17.49280000      6.01925700     21.54577300
C      18.52088000      6.80996200     21.54954600
C      18.95926600      7.25147200     22.87021500
C      18.27886000      6.83672000     23.98335100
C      17.19404300      5.99383700     23.88524400
C      18.94328800      7.39864200     25.14554000
C      19.99713900      8.20138800     24.94555200
C      16.38360200      5.56838100     25.19082000
H      16.80893400      5.96002800     25.98159900
H      16.37741700      4.59169400     25.27270100
H      15.46109000      5.89495200     25.12127700
O      19.18349300      7.47356500     20.54583800
S      14.57554800      3.83043600     23.17434700
S      16.70566400      5.50550000     19.98851500
S      20.35492500      8.23617400     23.15698900
S      18.49136100      7.40131800     26.83335500
C      19.69665400      6.63068200     19.51571600
H      20.20898600      5.89837700     19.93983900
H      18.93145900      6.21981000     19.04008600
C      20.60550500      7.30498900     18.46672700
H      20.31142800      8.24333200     18.32122700
H      21.54019300      7.32523100     18.79244200
C      20.52470800      6.51562200     17.13851100
H      21.08601200      6.96544000     16.45508400
H      19.59090100      6.51039000     16.81494800
C      21.01975600      5.07067900     17.35736500
H      20.90520800      4.55633300     16.52308000
H      20.47683400      4.64298900     18.06543300
C      22.50344700      5.07067900     17.77243300
H      22.60493100      5.52956900     18.64301800
H      23.03393700      5.56929100     17.09942000
C      23.03570300      3.62573600     17.88185900
H      23.97827500      3.65079500     18.14444600
H      22.94572900      3.18328900     17.01467000
H      22.51733000      3.14362000     18.55611800
C      21.72390300      9.56204300     26.29263500
C      20.56773500      8.81415100     26.10774100
C      19.76939700      8.48234900     27.19823700
C      20.13046200      8.89843900     28.47362600
C      21.28986600      9.64633100     28.65851900
C      22.08413200      9.97813300     27.57179700
C      23.24030000     10.72602400     27.75669100
C      23.60136600     11.14211400     29.03208000
H      24.39217100     11.65306200     29.16109000
C      22.80626300     10.81031300     30.12257500
H      23.05123400     11.09468600     30.99568900
C      21.64685900     10.06242100     29.93768200
C      22.47577300      9.98080900     25.25119300
C      24.09303000     11.19830700     26.63978200
C      20.79658600      9.69984800     31.16024400
C      19.44006900      8.54924500     29.51506800
N      23.74167100     10.81031300     25.36439300
N      19.67249300      9.00413400     30.90365700
O      22.43190900      9.91391300     24.17956400
O      24.98661200     11.96091500     26.78316900
O      21.14353500     10.09988300     32.26583300
O      18.22382400      7.81874600     29.68864100
C      24.46648200     11.20499600     24.15315100
H      24.00177100     10.82299600     23.35478800
C      24.43635600     12.73690300     24.07013800
H      24.88929000     13.03032000     23.24230400
H      24.92906100     13.11731100     24.84118200
C      23.00455200     13.26537800     24.07768400
H      22.57474700     12.99776900     24.92917600
H      22.50559600     12.83099800     23.34241100
C      22.87624200     14.75982300     23.92675100
H      23.04688100     15.00240000     22.98243400
H      21.94920200     15.02661600     24.14522700
C      23.85078100     15.54919000     24.82857900
H      24.76134600     15.17290300     24.74333900
H      23.87794800     16.49515900     24.53856000
C      23.39012100     15.46624000     26.30772800
H      23.43373900     14.53472000     26.62638700
H      22.45415300     15.78418100     26.38787400
C      24.32376800     16.36263900     27.16050300
H      24.04425900     16.32606100     28.09938600
H      24.26916900     17.29061400     26.84233500
H      25.24562300     16.04518000     27.08009300
C      25.90107600     10.67652200     24.20597800
H      25.89508200      9.74169700     24.54803100
H      26.43587500     11.22354000     24.82922000
C      26.54058700     10.70328000     22.82493500
H      26.73604300     11.64083400     22.59223300
H      25.88226200     10.36018600     22.16984600
C      27.80598000      9.90053400     22.67777500
H      28.51190700     10.31437600     23.23988900
H      27.65074800      8.98544400     23.01492300
C      28.30775400      9.82025900     21.21749200
H      27.55312100      9.60484300     20.61734300
H      28.67524000     10.70356100     20.94396300
C      29.40790900      8.73655200     21.10051900
H      30.10128200      9.01585400     20.45229700
H      29.84207100      8.59104100     21.98061300
C      28.71498400      7.42540100     20.62130500
H      29.38098500      6.71740500     20.53644200
H      28.29042000      7.58677900     19.75162500
H      28.03235000      7.16381200     21.27333800
C      18.73508200      8.77669000     32.09603200
H      19.13765600      9.31720500     32.83798400
C      17.32162900      9.36001800     31.91868500
H      16.81793600      9.25915300     32.76515900
H      16.84365700      8.84931100     31.21733500
C      17.35927900     10.82369200     31.53003100
H      17.81212200     10.90390000     30.65314500
H      17.91670700     11.30814900     32.19319600
C      16.03011900     11.51940500     31.43947100
H      15.40902000     10.96239300     30.90818500
H      15.65184000     11.61831700     32.34809100
C      16.14659100     12.91083200     30.78291000
H      16.43965800     13.58000100     31.45780900
H      16.82466100     12.89188700     30.06099400
C      14.77173600     13.33896300     30.19804200
H      14.39405500     12.60209500     29.64966300
H      14.13599300     13.54213800     30.92795700
C      15.01522900     14.59659800     29.31885400
H      14.16621500     14.89097800     28.93129400
H      15.64525100     14.37580300     28.60248500
H      15.38833900     15.31160400     29.87500600
C      18.64767300      7.35850500     32.65071300
H      18.25616700      6.75795700     31.96317300
H      18.05560300      7.34337300     33.44092600
C      20.02074000      6.83672000     33.03936700
H      20.47435400      7.53213900     33.57771000
H      20.55096500      6.70536400     32.21477900
C      20.03520000      5.55232700     33.82044900
H      19.61867000      5.70424600     34.70473100
H      19.49467000      4.87482200     33.34138500
C      21.46951800      5.00378300     34.02043600
H      21.83745300      4.70303500     33.15320900
H      22.05523200      5.72537200     34.37014900
C      21.43784500      3.82642300     35.02414400
H      20.50354300      3.54591600     35.20198200
H      21.92936700      3.04440100     34.65424400
C      22.11493900      4.32144900     36.33349300
H      22.11436200      3.59179300     36.99386600
H      21.61849900      5.08210500     36.68705500
H      23.03785000      4.58287700     36.14180800
